OPT_V8/My_Campus_24/powerflow_results_t12.txt
Pandapower Network Debug Info
==================================================

BUS:
       vm_pu  va_degree      p_mw    q_mvar
0   0.999712   0.440508 -0.002120  0.000874
1   0.999703   0.705615 -0.002517  0.001721
2   0.998649   0.920169 -0.001285  0.003131
3   0.998474   0.671499 -0.001778  0.004640
4   0.995626   0.465673 -0.000636  0.004657
5   0.998667   0.387745 -0.001103  0.004887
6   0.999721   0.530133 -0.002136  0.001184
7   0.999599   0.113732 -0.001125  0.001929
8   0.999306   0.104591 -0.002298  0.003153
9   0.999924   0.002178  0.006919  0.008375
10  0.999914   0.002356  0.005788  0.009210
11  0.999906   0.002476  0.008048  0.010549
12  0.999854   0.005054  0.005375  0.005763
13  0.999828   0.005390  0.009439  0.010993
14  0.999837   0.005288  0.009607  0.012332
15  0.999957   0.001649  0.000000  0.000000
16  0.999957   0.001655  0.000000  0.000000
17  0.999857   0.005023  0.000000  0.000000
18  0.999857   0.005032  0.000000  0.000000
19  1.000000   0.000000 -0.013205 -0.043601
20  1.000000   0.000006  0.000000  0.000000
21  1.000000   0.000000 -0.017233 -0.049969
22  1.000000   0.000007  0.000000  0.000000
--------------------------------------------------

LINE:
    p_from_mw  q_from_mvar   p_to_mw  q_to_mvar         pl_mw       ql_mvar  i_from_ka   i_to_ka      i_ka  vm_from_pu  va_from_degree  vm_to_pu  va_to_degree  loading_percent
0    0.013195     0.039601 -0.013193  -0.039600  1.704244e-06  1.328827e-06   0.001607  0.001607  0.001607    1.000000        0.000006  0.999957      0.001649         0.698533
1    0.017223     0.045970 -0.017217  -0.045964  6.482149e-06  5.054239e-06   0.001889  0.001889  0.001889    1.000000        0.000007  0.999857      0.005023         0.821513
2    0.020757     0.028135 -0.020756  -0.028134  9.453442e-07  7.371004e-07   0.001346  0.001346  0.001346    0.999957        0.001649  0.999924      0.002178         0.585122
3    0.005375     0.005763 -0.005375  -0.005763  2.148217e-08  1.675000e-08   0.000303  0.000303  0.000303    0.999857        0.005023  0.999854      0.005054         0.131896
4    0.019046     0.023325 -0.019046  -0.023325  4.959970e-07  3.867370e-07   0.001159  0.001159  0.001159    0.999857        0.005023  0.999837      0.005288         0.504021
5   -0.007574     0.010465  0.007652  -0.010404  7.806000e-05  6.086467e-05   0.018647  0.018647  0.018647    0.999957        0.001655  0.999712      0.440508         8.107232
6   -0.003197     0.006104  0.003234  -0.006075  3.684828e-05  2.873121e-05   0.009947  0.009947  0.009947    0.999857        0.005032  0.998667      0.387745         4.324943
7   -0.001122     0.001932  0.001125  -0.001929  3.372773e-06  2.629807e-06   0.003225  0.003225  0.003225    0.999857        0.005032  0.999599      0.113732         1.402161
8   -0.002896     0.007840  0.002908  -0.007831  1.201313e-05  9.366834e-06   0.012065  0.012065  0.012065    0.999857        0.005032  0.999306      0.104591         5.245589
9   -0.013836    -0.019759  0.013836   0.019759  2.012537e-07  1.569208e-07   0.000929  0.000929  0.000929    0.999914        0.002356  0.999924      0.002178         0.403706
10  -0.008048    -0.010549  0.008048   0.010549  8.611795e-08  6.714758e-08   0.000511  0.000511  0.000511    0.999906        0.002476  0.999914      0.002356         0.222067
11   0.009439     0.010993 -0.009439  -0.010993  1.027070e-07  8.008231e-08   0.000558  0.000558  0.000558    0.999837        0.005288  0.999828      0.005390         0.242514
12   0.003792    -0.004860 -0.003769   0.004877  2.249185e-05  1.753727e-05   0.008900  0.008900  0.008900    0.999703        0.705615  0.999712      0.440508         3.869376
13   0.001778    -0.004640 -0.001762   0.004653  1.654002e-05  1.289653e-05   0.007184  0.007184  0.007184    0.998474        0.671499  0.999712      0.440508         3.123446
14   0.001285    -0.003131 -0.001275   0.003139  1.038872e-05  8.100256e-06   0.004891  0.004891  0.004891    0.998649        0.920169  0.999703      0.705615         2.126698
15  -0.000609     0.004678  0.000636  -0.004657  2.711682e-05  2.114343e-05   0.006814  0.006814  0.006814    0.999306        0.104591  0.995626      0.465673         2.962576
16   0.002136    -0.001184 -0.002131   0.001188  5.197138e-06  4.052294e-06   0.003527  0.003527  0.003527    0.999721        0.530133  0.998667      0.387745         1.533271
--------------------------------------------------

TRAFO:
    p_hv_mw  q_hv_mvar   p_lv_mw  q_lv_mvar    pl_mw  ql_mvar   i_hv_ka   i_lv_ka  vm_hv_pu  va_hv_degree  vm_lv_pu  va_lv_degree  loading_percent
0 -0.007564   0.011465  0.007574  -0.010465  0.00001    0.001  0.000529  0.018647  0.999957      0.001649  0.999957      0.001655         0.137358
1 -0.007204   0.016876  0.007214  -0.015876  0.00001    0.001  0.000706  0.025174  0.999857      0.005023  0.999857      0.005032         0.183519
2  0.013205   0.043601 -0.013195  -0.039601  0.00001    0.004  0.000376  0.001607  1.000000      0.000000  1.000000      0.000006         0.113892
3  0.017233   0.049969 -0.017223  -0.045970  0.00001    0.004  0.000436  0.001889  1.000000      0.000000  1.000000      0.000007         0.132144
--------------------------------------------------
